%Chk=gaussian.chk
#P HF/6-31G* SCF=Tight 
   Pop=MK IOp(6/33=2,6/41=10,6/42=17)

Biotin, HF, 6-31G*, 1/9-05

   -2    1
C         14.28700        6.90800        1.07500
N         12.00800        7.33500        1.69300
O         14.39500        5.66600        0.98700
S         16.06300        0.74100        2.64700
C         13.38500        7.46900        2.18200
N         15.74500        4.76000        3.34600
O         14.80100        7.73300        0.29100
S         14.80400       -0.26700        1.39500
C         13.55100        6.76900        3.55500
N         18.70700        2.80200        2.50400
O         16.21500        5.33300        5.48200
C         14.95800        6.91500        4.19000
N         20.81400        4.94800       -2.30800
O         17.80400        4.67100        1.61500
C         15.69600        5.58800        4.39600
N         17.20100        0.71800       -1.81400
O         22.09100        3.60300        2.35000
C         16.47100        3.49700        3.25100
N         16.80400       -2.06000       -2.07600
O         21.12500        2.10900        3.69100
C         17.72900        3.71100        2.38400
O         22.17900        2.96700       -3.71400
C         15.53300        2.47800        2.56400
O         20.37800        2.93200       -5.00100
C         19.95000        2.78300        1.74000
O         17.73000        2.60800       -0.71000
C         21.15600        2.83900        2.67400
O         17.60100       -2.21400        0.05700
C         20.95700        3.14600       -3.91200
O         18.00100       -5.06700       -1.28000
C         20.15700        3.70200       -2.71900
O         19.46300       -3.85100       -2.43300
C         18.65400        3.96100       -3.00200
C         17.78100        2.69600       -3.10700
C         17.58400        1.99700       -1.76500
C         16.82500       -0.07400       -0.64400
C         17.11700       -1.56000       -0.86400
C         15.36400        0.24300       -0.25400
C         17.15400       -3.34500       -2.69700
C         18.30500       -4.14800       -2.07400
H         13.58500        8.53100        2.31600
H         11.91100        7.82900        0.81600
H         11.82400        6.35600        1.53000
H         12.83000        7.20300        4.25000
H         13.25400        5.72200        3.47800
H         15.59400        7.56800        3.59200
H         14.86500        7.40300        5.16100
H         15.32200        5.08400        2.47500
H         16.75500        3.13900        4.24200
H         14.54200        2.52500        3.02000
H         15.39100        2.75300        1.51800
H         18.61400        2.07200        3.19500
H         19.99400        1.85800        1.16700
H         20.00400        3.60100        1.02000
H         11.35600        7.70900        2.36400
H         20.26400        3.00200       -1.89000
H         21.80400        4.76200       -2.22400
H         20.66100        5.64600       -3.02600
H         18.53800        4.53200       -3.91700
H         18.24500        4.61300       -2.22800
H         18.19400        1.99300       -3.83100
H         16.79500        2.97500       -3.47800
H         17.10000        0.28700       -2.72100
H         17.47400        0.23400        0.17800
H         14.68700       -0.19800       -0.98500
H         15.20100        1.31900       -0.30900
H         16.31900       -1.42500       -2.69500
H         16.26100       -3.97000       -2.70600
H         17.39600       -3.15800       -3.74400
H         20.43800        5.26800       -1.42800

